data/inputs/nesta_case73_ieee_rts.m
%%%%%%%%%%%%%%%%%%%%%%%%%%%%%%%%%%%%%%%%%%%%%%%%%%%%%%%%%%%%%%%%%%%%%%%%%%%
%%%%                                                                  %%%%%
%%%%      NICTA Energy System Test Case Archive (NESTA) - v0.7.0      %%%%%
%%%%              Optimal Power Flow - Typical Operation              %%%%%
%%%%                         05 - June - 2017                         %%%%%
%%%%                                                                  %%%%%
%%%%%%%%%%%%%%%%%%%%%%%%%%%%%%%%%%%%%%%%%%%%%%%%%%%%%%%%%%%%%%%%%%%%%%%%%%%
%
%   Power flow data for the IEEE RELIABILITY TEST SYSTEM 1996.
%
%   IEEE Reliability Test System Task Force of Applications of
%   Probability Methods Subcommittee, "IEEE reliability test system-96,"
%   IEEE Transactions on Power Systems, Vol. 14, No. 3, Aug. 1999,
%   pp. 1010-1020.
%
%   See also (this network is three replicates of the RTS-79 system):
%   IEEE Reliability Test System Task Force of the Applications of
%   Probability Methods Subcommittee, "IEEE reliability test system,"
%   IEEE Transactions on Power Apparatus and Systems, Vol. 98, No. 6,
%   Nov./Dec. 1979, pp. 2047-2054.
%
%   Cost data is from Web site run by Georgia Tech Power Systems Control
%   and Automation Laboratory:
%       http://pscal.ece.gatech.edu/testsys/index.html
%
%   Converted from data files on:
%       http://www.ee.washington.edu/research/pstca/rts/pg_tcarts.htm
%
%   Does not include optional DC link
%   Bus voltage bounds from Matpower standard +/- 6% off nominal
%   Reactive compensation at buses 106, 206, 306 is essential for feasibility due to 
%   line charging on branch 6-10.  A shunt of 100 MVar is indicated in the RTS-79 paper.
%
%   Matpower case file data provided by Clayton Barrows, Carleton Coffrin, 
%   and NICTA's Optisation Research Group.
%
function mpc = nesta_case73_ieee_rts
mpc.version = '2';
mpc.baseMVA = 100.0;

%% area data
%	area	refbus
mpc.areas = [
	1	 101;
	2	 201;
	3	 301;
];

%% bus data
%	bus_i	type	Pd	Qd	Gs	Bs	area	Vm	Va	baseKV	zone	Vmax	Vmin
mpc.bus = [
	101	 2	 108.0	 22.0	 0.0	 0.0	 1	    1.04777	   -7.74149	 138.0	 1	    1.05000	    0.95000;
	102	 2	 97.0	 20.0	 0.0	 0.0	 1	    1.04782	   -7.81786	 138.0	 1	    1.05000	    0.95000;
	103	 1	 180.0	 37.0	 0.0	 0.0	 1	    1.01085	   -7.21088	 138.0	 1	    1.05000	    0.95000;
	104	 1	 74.0	 15.0	 0.0	 0.0	 1	    1.01765	  -10.56613	 138.0	 1	    1.05000	    0.95000;
	105	 1	 71.0	 14.0	 0.0	 0.0	 1	    1.03568	  -10.70885	 138.0	 1	    1.05000	    0.95000;
	106	 1	 136.0	 28.0	 0.0	 -100.0	 1	    1.03242	  -13.27943	 138.0	 1	    1.05000	    0.95000;
	107	 2	 125.0	 25.0	 0.0	 0.0	 1	    1.03745	  -11.27674	 138.0	 1	    1.05000	    0.95000;
	108	 1	 171.0	 35.0	 0.0	 0.0	 1	    1.01024	  -13.74966	 138.0	 1	    1.05000	    0.95000;
	109	 1	 175.0	 36.0	 0.0	 0.0	 1	    1.02610	   -8.81522	 138.0	 1	    1.05000	    0.95000;
	110	 1	 195.0	 40.0	 0.0	 0.0	 1	    1.05000	  -10.62066	 138.0	 1	    1.05000	    0.95000;
	111	 1	 0.0	 0.0	 0.0	 0.0	 1	    1.02764	   -3.91672	 230.0	 1	    1.05000	    0.95000;
	112	 1	 0.0	 0.0	 0.0	 0.0	 1	    1.02024	   -2.42423	 230.0	 1	    1.05000	    0.95000;
	113	 3	 265.0	 54.0	 0.0	 0.0	 1	    1.03943	   -0.00000	 230.0	 1	    1.05000	    0.95000;
	114	 2	 194.0	 39.0	 0.0	 0.0	 1	    1.04402	   -1.73059	 230.0	 1	    1.05000	    0.95000;
	115	 2	 317.0	 64.0	 0.0	 0.0	 1	    1.04335	    7.95971	 230.0	 1	    1.05000	    0.95000;
	116	 2	 100.0	 20.0	 0.0	 0.0	 1	    1.04565	    7.56927	 230.0	 1	    1.05000	    0.95000;
	117	 1	 0.0	 0.0	 0.0	 0.0	 1	    1.04782	   11.43416	 230.0	 1	    1.05000	    0.95000;
	118	 2	 333.0	 68.0	 0.0	 0.0	 1	    1.05000	   12.52456	 230.0	 1	    1.05000	    0.95000;
	119	 1	 181.0	 37.0	 0.0	 0.0	 1	    1.03962	    6.65779	 230.0	 1	    1.05000	    0.95000;
	120	 1	 128.0	 26.0	 0.0	 0.0	 1	    1.04399	    7.74058	 230.0	 1	    1.05000	    0.95000;
	121	 2	 0.0	 0.0	 0.0	 0.0	 1	    1.05000	   13.08653	 230.0	 1	    1.05000	    0.95000;
	122	 2	 0.0	 0.0	 0.0	 0.0	 1	    1.05000	   18.94979	 230.0	 1	    1.05000	    0.95000;
	123	 2	 0.0	 0.0	 0.0	 0.0	 1	    1.05000	    9.05618	 230.0	 1	    1.05000	    0.95000;
	124	 1	 0.0	 0.0	 0.0	 0.0	 1	    1.01155	    2.38338	 230.0	 1	    1.05000	    0.95000;
	201	 2	 108.0	 22.0	 0.0	 0.0	 2	    1.04841	  -10.68972	 138.0	 2	    1.05000	    0.95000;
	202	 2	 97.0	 20.0	 0.0	 0.0	 2	    1.04844	  -10.75906	 138.0	 2	    1.05000	    0.95000;
	203	 1	 180.0	 37.0	 0.0	 0.0	 2	    1.01886	  -10.47451	 138.0	 2	    1.05000	    0.95000;
	204	 1	 74.0	 15.0	 0.0	 0.0	 2	    1.01890	  -13.48477	 138.0	 2	    1.05000	    0.95000;
	205	 1	 71.0	 14.0	 0.0	 0.0	 2	    1.03603	  -13.61186	 138.0	 2	    1.05000	    0.95000;
	206	 1	 136.0	 28.0	 0.0	 -100.0	 2	    1.03259	  -16.15672	 138.0	 2	    1.05000	    0.95000;
	207	 2	 125.0	 25.0	 0.0	 0.0	 2	    1.03973	  -13.46605	 138.0	 2	    1.05000	    0.95000;
	208	 1	 171.0	 35.0	 0.0	 0.0	 2	    1.01203	  -16.22358	 138.0	 2	    1.05000	    0.95000;
	209	 1	 175.0	 36.0	 0.0	 0.0	 2	    1.02781	  -11.72409	 138.0	 2	    1.05000	    0.95000;
	210	 1	 195.0	 40.0	 0.0	 0.0	 2	    1.05000	  -13.47986	 138.0	 2	    1.05000	    0.95000;
	211	 1	 0.0	 0.0	 0.0	 0.0	 2	    1.02735	   -6.93338	 230.0	 2	    1.05000	    0.95000;
	212	 1	 0.0	 0.0	 0.0	 0.0	 2	    1.01921	   -5.25332	 230.0	 2	    1.05000	    0.95000;
	213	 2	 265.0	 54.0	 0.0	 0.0	 2	    1.03752	   -3.21511	 230.0	 2	    1.05000	    0.95000;
	214	 2	 194.0	 39.0	 0.0	 0.0	 2	    1.04335	   -4.68520	 230.0	 2	    1.05000	    0.95000;
	215	 2	 317.0	 64.0	 0.0	 0.0	 2	    1.04327	    4.63349	 230.0	 2	    1.05000	    0.95000;
	216	 2	 100.0	 20.0	 0.0	 0.0	 2	    1.04556	    4.70011	 230.0	 2	    1.05000	    0.95000;
	217	 1	 0.0	 0.0	 0.0	 0.0	 2	    1.04847	    8.81842	 230.0	 2	    1.05000	    0.95000;
	218	 2	 333.0	 68.0	 0.0	 0.0	 2	    1.05000	    9.99473	 230.0	 2	    1.05000	    0.95000;
	219	 1	 181.0	 37.0	 0.0	 0.0	 2	    1.03946	    4.21233	 230.0	 2	    1.05000	    0.95000;
	220	 1	 128.0	 26.0	 0.0	 0.0	 2	    1.04380	    5.66449	 230.0	 2	    1.05000	    0.95000;
	221	 2	 0.0	 0.0	 0.0	 0.0	 2	    1.05000	   10.63208	 230.0	 2	    1.05000	    0.95000;
	222	 2	 0.0	 0.0	 0.0	 0.0	 2	    1.05000	   16.43201	 230.0	 2	    1.05000	    0.95000;
	223	 2	 0.0	 0.0	 0.0	 0.0	 2	    1.05000	    7.18150	 230.0	 2	    1.05000	    0.95000;
	224	 1	 0.0	 0.0	 0.0	 0.0	 2	    1.01456	   -0.96007	 230.0	 2	    1.05000	    0.95000;
	301	 2	 108.0	 22.0	 0.0	 0.0	 3	    1.04860	   -9.34819	 138.0	 3	    1.05000	    0.95000;
	302	 2	 97.0	 20.0	 0.0	 0.0	 3	    1.04864	   -9.43099	 138.0	 3	    1.05000	    0.95000;
	303	 1	 180.0	 37.0	 0.0	 0.0	 3	    1.01045	   -8.57688	 138.0	 3	    1.05000	    0.95000;
	304	 1	 74.0	 15.0	 0.0	 0.0	 3	    1.01785	  -12.18784	 138.0	 3	    1.05000	    0.95000;
	305	 1	 71.0	 14.0	 0.0	 0.0	 3	    1.03609	  -12.35006	 138.0	 3	    1.05000	    0.95000;
	306	 1	 136.0	 28.0	 0.0	 -100.0	 3	    1.03260	  -14.94207	 138.0	 3	    1.05000	    0.95000;
	307	 2	 125.0	 25.0	 0.0	 0.0	 3	    1.03804	  -12.54794	 138.0	 3	    1.05000	    0.95000;
	308	 1	 171.0	 35.0	 0.0	 0.0	 3	    1.01056	  -15.18287	 138.0	 3	    1.05000	    0.95000;
	309	 1	 175.0	 36.0	 0.0	 0.0	 3	    1.02579	  -10.44616	 138.0	 3	    1.05000	    0.95000;
	310	 1	 195.0	 40.0	 0.0	 0.0	 3	    1.05000	  -12.30116	 138.0	 3	    1.05000	    0.95000;
	311	 1	 0.0	 0.0	 0.0	 0.0	 3	    1.02830	   -5.74067	 230.0	 3	    1.05000	    0.95000;
	312	 1	 0.0	 0.0	 0.0	 0.0	 3	    1.01900	   -4.14602	 230.0	 3	    1.05000	    0.95000;
	313	 2	 265.0	 54.0	 0.0	 0.0	 3	    1.03802	   -2.41514	 230.0	 3	    1.05000	    0.95000;
	314	 2	 194.0	 39.0	 0.0	 0.0	 3	    1.04631	   -3.20793	 230.0	 3	    1.05000	    0.95000;
	315	 2	 317.0	 64.0	 0.0	 0.0	 3	    1.04300	    7.05090	 230.0	 3	    1.05000	    0.95000;
	316	 2	 100.0	 20.0	 0.0	 0.0	 3	    1.04558	    6.59877	 230.0	 3	    1.05000	    0.95000;
	317	 1	 0.0	 0.0	 0.0	 0.0	 3	    1.04785	   10.34420	 230.0	 3	    1.05000	    0.95000;
	318	 2	 333.0	 68.0	 0.0	 0.0	 3	    1.05000	   11.34263	 230.0	 3	    1.05000	    0.95000;
	319	 1	 181.0	 37.0	 0.0	 0.0	 3	    1.03953	    5.91541	 230.0	 3	    1.05000	    0.95000;
	320	 1	 128.0	 26.0	 0.0	 0.0	 3	    1.04389	    7.19709	 230.0	 3	    1.05000	    0.95000;
	321	 2	 0.0	 0.0	 0.0	 0.0	 3	    1.05000	   12.34121	 230.0	 3	    1.05000	    0.95000;
	322	 2	 0.0	 0.0	 0.0	 0.0	 3	    1.05000	   18.06915	 230.0	 3	    1.05000	    0.95000;
	323	 2	 0.0	 0.0	 0.0	 0.0	 3	    1.05000	    8.62114	 230.0	 3	    1.05000	    0.95000;
	324	 1	 0.0	 0.0	 0.0	 0.0	 3	    1.01046	    1.30608	 230.0	 3	    1.05000	    0.95000;
	325	 1	 0.0	 0.0	 0.0	 0.0	 3	    1.04986	    8.99331	 230.0	 3	    1.05000	    0.95000;
];

%% generator data
%	bus	Pg	Qg	Qmax	Qmin	Vg	mBase	status	Pmax	Pmin	Pc1	Pc2	Qc1min	Qc1max	Qc2min	Qc2max	ramp_agc	ramp_10	ramp_30	ramp_q	apf
mpc.gen = [
	101	 16.0	 4.88	 10.0	 0.0	 1.04777	 100.0	 1	 20.0	 16.0	 0.0	 0.0	 0.0	 0.0	 0.0	 0.0	 0.0	 0.0	 0.0	 0.0	 0.0;
	101	 16.0	 4.88	 10.0	 0.0	 1.04777	 100.0	 1	 20.0	 16.0	 0.0	 0.0	 0.0	 0.0	 0.0	 0.0	 0.0	 0.0	 0.0	 0.0	 0.0;
	101	 76.0	 -1.077	 30.0	 -25.0	 1.04777	 100.0	 1	 76.0	 15.2	 0.0	 0.0	 0.0	 0.0	 0.0	 0.0	 0.0	 0.0	 0.0	 0.0	 0.0;
	101	 76.0	 -1.077	 30.0	 -25.0	 1.04777	 100.0	 1	 76.0	 15.2	 0.0	 0.0	 0.0	 0.0	 0.0	 0.0	 0.0	 0.0	 0.0	 0.0	 0.0;
	102	 16.0	 4.82	 10.0	 0.0	 1.04782	 100.0	 1	 20.0	 16.0	 0.0	 0.0	 0.0	 0.0	 0.0	 0.0	 0.0	 0.0	 0.0	 0.0	 0.0;
	102	 16.0	 4.82	 10.0	 0.0	 1.04782	 100.0	 1	 20.0	 16.0	 0.0	 0.0	 0.0	 0.0	 0.0	 0.0	 0.0	 0.0	 0.0	 0.0	 0.0;
	102	 76.0	 -2.741	 30.0	 -25.0	 1.04782	 100.0	 1	 76.0	 15.2	 0.0	 0.0	 0.0	 0.0	 0.0	 0.0	 0.0	 0.0	 0.0	 0.0	 0.0;
	102	 76.0	 -2.741	 30.0	 -25.0	 1.04782	 100.0	 1	 76.0	 15.2	 0.0	 0.0	 0.0	 0.0	 0.0	 0.0	 0.0	 0.0	 0.0	 0.0	 0.0;
	107	 66.816	 20.616	 60.0	 0.0	 1.03745	 100.0	 1	 100.0	 25.0	 0.0	 0.0	 0.0	 0.0	 0.0	 0.0	 0.0	 0.0	 0.0	 0.0	 0.0;
	107	 66.816	 20.616	 60.0	 0.0	 1.03745	 100.0	 1	 100.0	 25.0	 0.0	 0.0	 0.0	 0.0	 0.0	 0.0	 0.0	 0.0	 0.0	 0.0	 0.0;
	107	 66.816	 20.616	 60.0	 0.0	 1.03745	 100.0	 1	 100.0	 25.0	 0.0	 0.0	 0.0	 0.0	 0.0	 0.0	 0.0	 0.0	 0.0	 0.0	 0.0;
	113	 69.0	 36.655	 80.0	 0.0	 1.03943	 100.0	 1	 197.0	 69.0	 0.0	 0.0	 0.0	 0.0	 0.0	 0.0	 0.0	 0.0	 0.0	 0.0	 0.0;
	113	 69.0	 36.655	 80.0	 0.0	 1.03943	 100.0	 1	 197.0	 69.0	 0.0	 0.0	 0.0	 0.0	 0.0	 0.0	 0.0	 0.0	 0.0	 0.0	 0.0;
	113	 69.0	 36.655	 80.0	 0.0	 1.03943	 100.0	 1	 197.0	 69.0	 0.0	 0.0	 0.0	 0.0	 0.0	 0.0	 0.0	 0.0	 0.0	 0.0	 0.0;
	114	 0.0	 106.688	 200.0	 -50.0	 1.04402	 100.0	 1	 0.0	 0.0	 0.0	 0.0	 0.0	 0.0	 0.0	 0.0	 0.0	 0.0	 0.0	 0.0	 0.0;
	115	 2.4	 6.0	 6.0	 0.0	 1.04335	 100.0	 1	 12.0	 2.4	 0.0	 0.0	 0.0	 0.0	 0.0	 0.0	 0.0	 0.0	 0.0	 0.0	 0.0;
	115	 2.4	 6.0	 6.0	 0.0	 1.04335	 100.0	 1	 12.0	 2.4	 0.0	 0.0	 0.0	 0.0	 0.0	 0.0	 0.0	 0.0	 0.0	 0.0	 0.0;
	115	 2.4	 6.0	 6.0	 0.0	 1.04335	 100.0	 1	 12.0	 2.4	 0.0	 0.0	 0.0	 0.0	 0.0	 0.0	 0.0	 0.0	 0.0	 0.0	 0.0;
	115	 2.4	 6.0	 6.0	 0.0	 1.04335	 100.0	 1	 12.0	 2.4	 0.0	 0.0	 0.0	 0.0	 0.0	 0.0	 0.0	 0.0	 0.0	 0.0	 0.0;
	115	 2.4	 6.0	 6.0	 0.0	 1.04335	 100.0	 1	 12.0	 2.4	 0.0	 0.0	 0.0	 0.0	 0.0	 0.0	 0.0	 0.0	 0.0	 0.0	 0.0;
	115	 155.0	 80.0	 80.0	 -50.0	 1.04335	 100.0	 1	 155.0	 54.3	 0.0	 0.0	 0.0	 0.0	 0.0	 0.0	 0.0	 0.0	 0.0	 0.0	 0.0;
	116	 155.0	 80.0	 80.0	 -50.0	 1.04565	 100.0	 1	 155.0	 54.3	 0.0	 0.0	 0.0	 0.0	 0.0	 0.0	 0.0	 0.0	 0.0	 0.0	 0.0;
	118	 400.0	 66.602	 200.0	 -50.0	 1.05	 100.0	 1	 400.0	 100.0	 0.0	 0.0	 0.0	 0.0	 0.0	 0.0	 0.0	 0.0	 0.0	 0.0	 0.0;
	121	 400.0	 -25.009	 200.0	 -50.0	 1.05	 100.0	 1	 400.0	 100.0	 0.0	 0.0	 0.0	 0.0	 0.0	 0.0	 0.0	 0.0	 0.0	 0.0	 0.0;
	122	 50.0	 -6.699	 16.0	 -10.0	 1.05	 100.0	 1	 50.0	 10.0	 0.0	 0.0	 0.0	 0.0	 0.0	 0.0	 0.0	 0.0	 0.0	 0.0	 0.0;
	122	 50.0	 -6.699	 16.0	 -10.0	 1.05	 100.0	 1	 50.0	 10.0	 0.0	 0.0	 0.0	 0.0	 0.0	 0.0	 0.0	 0.0	 0.0	 0.0	 0.0;
	122	 50.0	 -6.699	 16.0	 -10.0	 1.05	 100.0	 1	 50.0	 10.0	 0.0	 0.0	 0.0	 0.0	 0.0	 0.0	 0.0	 0.0	 0.0	 0.0	 0.0;
	122	 50.0	 -6.699	 16.0	 -10.0	 1.05	 100.0	 1	 50.0	 10.0	 0.0	 0.0	 0.0	 0.0	 0.0	 0.0	 0.0	 0.0	 0.0	 0.0	 0.0;
	122	 50.0	 -6.699	 16.0	 -10.0	 1.05	 100.0	 1	 50.0	 10.0	 0.0	 0.0	 0.0	 0.0	 0.0	 0.0	 0.0	 0.0	 0.0	 0.0	 0.0;
	122	 50.0	 -6.699	 16.0	 -10.0	 1.05	 100.0	 1	 50.0	 10.0	 0.0	 0.0	 0.0	 0.0	 0.0	 0.0	 0.0	 0.0	 0.0	 0.0	 0.0;
	123	 155.0	 -3.225	 80.0	 -50.0	 1.05	 100.0	 1	 155.0	 54.3	 0.0	 0.0	 0.0	 0.0	 0.0	 0.0	 0.0	 0.0	 0.0	 0.0	 0.0;
	123	 155.0	 -3.225	 80.0	 -50.0	 1.05	 100.0	 1	 155.0	 54.3	 0.0	 0.0	 0.0	 0.0	 0.0	 0.0	 0.0	 0.0	 0.0	 0.0	 0.0;
	123	 350.0	 31.244	 150.0	 -25.0	 1.05	 100.0	 1	 350.0	 140.0	 0.0	 0.0	 0.0	 0.0	 0.0	 0.0	 0.0	 0.0	 0.0	 0.0	 0.0;
	201	 16.0	 4.824	 10.0	 0.0	 1.04841	 100.0	 1	 20.0	 16.0	 0.0	 0.0	 0.0	 0.0	 0.0	 0.0	 0.0	 0.0	 0.0	 0.0	 0.0;
	201	 16.0	 4.824	 10.0	 0.0	 1.04841	 100.0	 1	 20.0	 16.0	 0.0	 0.0	 0.0	 0.0	 0.0	 0.0	 0.0	 0.0	 0.0	 0.0	 0.0;
	201	 76.0	 -2.64	 30.0	 -25.0	 1.04841	 100.0	 1	 76.0	 15.2	 0.0	 0.0	 0.0	 0.0	 0.0	 0.0	 0.0	 0.0	 0.0	 0.0	 0.0;
	201	 76.0	 -2.64	 30.0	 -25.0	 1.04841	 100.0	 1	 76.0	 15.2	 0.0	 0.0	 0.0	 0.0	 0.0	 0.0	 0.0	 0.0	 0.0	 0.0	 0.0;
	202	 16.0	 4.811	 10.0	 0.0	 1.04844	 100.0	 1	 20.0	 16.0	 0.0	 0.0	 0.0	 0.0	 0.0	 0.0	 0.0	 0.0	 0.0	 0.0	 0.0;
	202	 16.0	 4.811	 10.0	 0.0	 1.04844	 100.0	 1	 20.0	 16.0	 0.0	 0.0	 0.0	 0.0	 0.0	 0.0	 0.0	 0.0	 0.0	 0.0	 0.0;
	202	 76.0	 -2.989	 30.0	 -25.0	 1.04844	 100.0	 1	 76.0	 15.2	 0.0	 0.0	 0.0	 0.0	 0.0	 0.0	 0.0	 0.0	 0.0	 0.0	 0.0;
	202	 76.0	 -2.989	 30.0	 -25.0	 1.04844	 100.0	 1	 76.0	 15.2	 0.0	 0.0	 0.0	 0.0	 0.0	 0.0	 0.0	 0.0	 0.0	 0.0	 0.0;
	207	 71.574	 16.584	 60.0	 0.0	 1.03973	 100.0	 1	 100.0	 25.0	 0.0	 0.0	 0.0	 0.0	 0.0	 0.0	 0.0	 0.0	 0.0	 0.0	 0.0;
	207	 71.574	 16.584	 60.0	 0.0	 1.03973	 100.0	 1	 100.0	 25.0	 0.0	 0.0	 0.0	 0.0	 0.0	 0.0	 0.0	 0.0	 0.0	 0.0	 0.0;
	207	 71.574	 16.584	 60.0	 0.0	 1.03973	 100.0	 1	 100.0	 25.0	 0.0	 0.0	 0.0	 0.0	 0.0	 0.0	 0.0	 0.0	 0.0	 0.0	 0.0;
	213	 90.186	 35.467	 80.0	 0.0	 1.03752	 100.0	 1	 197.0	 69.0	 0.0	 0.0	 0.0	 0.0	 0.0	 0.0	 0.0	 0.0	 0.0	 0.0	 0.0;
	213	 90.186	 35.467	 80.0	 0.0	 1.03752	 100.0	 1	 197.0	 69.0	 0.0	 0.0	 0.0	 0.0	 0.0	 0.0	 0.0	 0.0	 0.0	 0.0	 0.0;
	213	 90.186	 35.467	 80.0	 0.0	 1.03752	 100.0	 1	 197.0	 69.0	 0.0	 0.0	 0.0	 0.0	 0.0	 0.0	 0.0	 0.0	 0.0	 0.0	 0.0;
	214	 0.0	 105.2	 200.0	 -50.0	 1.04335	 100.0	 1	 0.0	 0.0	 0.0	 0.0	 0.0	 0.0	 0.0	 0.0	 0.0	 0.0	 0.0	 0.0	 0.0;
	215	 2.4	 6.0	 6.0	 0.0	 1.04327	 100.0	 1	 12.0	 2.4	 0.0	 0.0	 0.0	 0.0	 0.0	 0.0	 0.0	 0.0	 0.0	 0.0	 0.0;
	215	 2.4	 6.0	 6.0	 0.0	 1.04327	 100.0	 1	 12.0	 2.4	 0.0	 0.0	 0.0	 0.0	 0.0	 0.0	 0.0	 0.0	 0.0	 0.0	 0.0;
	215	 2.4	 6.0	 6.0	 0.0	 1.04327	 100.0	 1	 12.0	 2.4	 0.0	 0.0	 0.0	 0.0	 0.0	 0.0	 0.0	 0.0	 0.0	 0.0	 0.0;
	215	 2.4	 6.0	 6.0	 0.0	 1.04327	 100.0	 1	 12.0	 2.4	 0.0	 0.0	 0.0	 0.0	 0.0	 0.0	 0.0	 0.0	 0.0	 0.0	 0.0;
	215	 2.4	 6.0	 6.0	 0.0	 1.04327	 100.0	 1	 12.0	 2.4	 0.0	 0.0	 0.0	 0.0	 0.0	 0.0	 0.0	 0.0	 0.0	 0.0	 0.0;
	215	 155.0	 80.0	 80.0	 -50.0	 1.04327	 100.0	 1	 155.0	 54.3	 0.0	 0.0	 0.0	 0.0	 0.0	 0.0	 0.0	 0.0	 0.0	 0.0	 0.0;
	216	 155.0	 80.0	 80.0	 -50.0	 1.04556	 100.0	 1	 155.0	 54.3	 0.0	 0.0	 0.0	 0.0	 0.0	 0.0	 0.0	 0.0	 0.0	 0.0	 0.0;
	218	 400.0	 61.795	 200.0	 -50.0	 1.05	 100.0	 1	 400.0	 100.0	 0.0	 0.0	 0.0	 0.0	 0.0	 0.0	 0.0	 0.0	 0.0	 0.0	 0.0;
	221	 400.0	 -9.833	 200.0	 -50.0	 1.05	 100.0	 1	 400.0	 100.0	 0.0	 0.0	 0.0	 0.0	 0.0	 0.0	 0.0	 0.0	 0.0	 0.0	 0.0;
	222	 50.0	 -6.797	 16.0	 -10.0	 1.05	 100.0	 1	 50.0	 10.0	 0.0	 0.0	 0.0	 0.0	 0.0	 0.0	 0.0	 0.0	 0.0	 0.0	 0.0;
	222	 50.0	 -6.797	 16.0	 -10.0	 1.05	 100.0	 1	 50.0	 10.0	 0.0	 0.0	 0.0	 0.0	 0.0	 0.0	 0.0	 0.0	 0.0	 0.0	 0.0;
	222	 50.0	 -6.797	 16.0	 -10.0	 1.05	 100.0	 1	 50.0	 10.0	 0.0	 0.0	 0.0	 0.0	 0.0	 0.0	 0.0	 0.0	 0.0	 0.0	 0.0;
	222	 50.0	 -6.797	 16.0	 -10.0	 1.05	 100.0	 1	 50.0	 10.0	 0.0	 0.0	 0.0	 0.0	 0.0	 0.0	 0.0	 0.0	 0.0	 0.0	 0.0;
	222	 50.0	 -6.797	 16.0	 -10.0	 1.05	 100.0	 1	 50.0	 10.0	 0.0	 0.0	 0.0	 0.0	 0.0	 0.0	 0.0	 0.0	 0.0	 0.0	 0.0;
	222	 50.0	 -6.797	 16.0	 -10.0	 1.05	 100.0	 1	 50.0	 10.0	 0.0	 0.0	 0.0	 0.0	 0.0	 0.0	 0.0	 0.0	 0.0	 0.0	 0.0;
	223	 155.0	 0.029	 80.0	 -50.0	 1.05	 100.0	 1	 155.0	 54.3	 0.0	 0.0	 0.0	 0.0	 0.0	 0.0	 0.0	 0.0	 0.0	 0.0	 0.0;
	223	 155.0	 0.029	 80.0	 -50.0	 1.05	 100.0	 1	 155.0	 54.3	 0.0	 0.0	 0.0	 0.0	 0.0	 0.0	 0.0	 0.0	 0.0	 0.0	 0.0;
	223	 350.0	 36.403	 150.0	 -25.0	 1.05	 100.0	 1	 350.0	 140.0	 0.0	 0.0	 0.0	 0.0	 0.0	 0.0	 0.0	 0.0	 0.0	 0.0	 0.0;
	301	 16.0	 4.902	 10.0	 0.0	 1.0486	 100.0	 1	 20.0	 16.0	 0.0	 0.0	 0.0	 0.0	 0.0	 0.0	 0.0	 0.0	 0.0	 0.0	 0.0;
	301	 16.0	 4.902	 10.0	 0.0	 1.0486	 100.0	 1	 20.0	 16.0	 0.0	 0.0	 0.0	 0.0	 0.0	 0.0	 0.0	 0.0	 0.0	 0.0	 0.0;
	301	 76.0	 -0.426	 30.0	 -25.0	 1.0486	 100.0	 1	 76.0	 15.2	 0.0	 0.0	 0.0	 0.0	 0.0	 0.0	 0.0	 0.0	 0.0	 0.0	 0.0;
	301	 76.0	 -0.426	 30.0	 -25.0	 1.0486	 100.0	 1	 76.0	 15.2	 0.0	 0.0	 0.0	 0.0	 0.0	 0.0	 0.0	 0.0	 0.0	 0.0	 0.0;
	302	 16.0	 4.833	 10.0	 0.0	 1.04864	 100.0	 1	 20.0	 16.0	 0.0	 0.0	 0.0	 0.0	 0.0	 0.0	 0.0	 0.0	 0.0	 0.0	 0.0;
	302	 16.0	 4.833	 10.0	 0.0	 1.04864	 100.0	 1	 20.0	 16.0	 0.0	 0.0	 0.0	 0.0	 0.0	 0.0	 0.0	 0.0	 0.0	 0.0	 0.0;
	302	 76.0	 -2.394	 30.0	 -25.0	 1.04864	 100.0	 1	 76.0	 15.2	 0.0	 0.0	 0.0	 0.0	 0.0	 0.0	 0.0	 0.0	 0.0	 0.0	 0.0;
	302	 76.0	 -2.394	 30.0	 -25.0	 1.04864	 100.0	 1	 76.0	 15.2	 0.0	 0.0	 0.0	 0.0	 0.0	 0.0	 0.0	 0.0	 0.0	 0.0	 0.0;
	307	 70.297	 16.714	 60.0	 0.0	 1.03804	 100.0	 1	 100.0	 25.0	 0.0	 0.0	 0.0	 0.0	 0.0	 0.0	 0.0	 0.0	 0.0	 0.0	 0.0;
	307	 70.297	 16.714	 60.0	 0.0	 1.03804	 100.0	 1	 100.0	 25.0	 0.0	 0.0	 0.0	 0.0	 0.0	 0.0	 0.0	 0.0	 0.0	 0.0	 0.0;
	307	 70.297	 16.714	 60.0	 0.0	 1.03804	 100.0	 1	 100.0	 25.0	 0.0	 0.0	 0.0	 0.0	 0.0	 0.0	 0.0	 0.0	 0.0	 0.0	 0.0;
	313	 76.947	 37.941	 80.0	 0.0	 1.03802	 100.0	 1	 197.0	 69.0	 0.0	 0.0	 0.0	 0.0	 0.0	 0.0	 0.0	 0.0	 0.0	 0.0	 0.0;
	313	 76.947	 37.941	 80.0	 0.0	 1.03802	 100.0	 1	 197.0	 69.0	 0.0	 0.0	 0.0	 0.0	 0.0	 0.0	 0.0	 0.0	 0.0	 0.0	 0.0;
	313	 76.947	 37.941	 80.0	 0.0	 1.03802	 100.0	 1	 197.0	 69.0	 0.0	 0.0	 0.0	 0.0	 0.0	 0.0	 0.0	 0.0	 0.0	 0.0	 0.0;
	314	 0.0	 117.87	 200.0	 -50.0	 1.04631	 100.0	 1	 0.0	 0.0	 0.0	 0.0	 0.0	 0.0	 0.0	 0.0	 0.0	 0.0	 0.0	 0.0	 0.0;
	315	 2.4	 6.0	 6.0	 0.0	 1.043	 100.0	 1	 12.0	 2.4	 0.0	 0.0	 0.0	 0.0	 0.0	 0.0	 0.0	 0.0	 0.0	 0.0	 0.0;
	315	 2.4	 6.0	 6.0	 0.0	 1.043	 100.0	 1	 12.0	 2.4	 0.0	 0.0	 0.0	 0.0	 0.0	 0.0	 0.0	 0.0	 0.0	 0.0	 0.0;
	315	 2.4	 6.0	 6.0	 0.0	 1.043	 100.0	 1	 12.0	 2.4	 0.0	 0.0	 0.0	 0.0	 0.0	 0.0	 0.0	 0.0	 0.0	 0.0	 0.0;
	315	 2.4	 6.0	 6.0	 0.0	 1.043	 100.0	 1	 12.0	 2.4	 0.0	 0.0	 0.0	 0.0	 0.0	 0.0	 0.0	 0.0	 0.0	 0.0	 0.0;
	315	 2.4	 6.0	 6.0	 0.0	 1.043	 100.0	 1	 12.0	 2.4	 0.0	 0.0	 0.0	 0.0	 0.0	 0.0	 0.0	 0.0	 0.0	 0.0	 0.0;
	315	 155.0	 80.0	 80.0	 -50.0	 1.043	 100.0	 1	 155.0	 54.3	 0.0	 0.0	 0.0	 0.0	 0.0	 0.0	 0.0	 0.0	 0.0	 0.0	 0.0;
	316	 155.0	 80.0	 80.0	 -50.0	 1.04558	 100.0	 1	 155.0	 54.3	 0.0	 0.0	 0.0	 0.0	 0.0	 0.0	 0.0	 0.0	 0.0	 0.0	 0.0;
	318	 400.0	 57.471	 200.0	 -50.0	 1.05	 100.0	 1	 400.0	 100.0	 0.0	 0.0	 0.0	 0.0	 0.0	 0.0	 0.0	 0.0	 0.0	 0.0	 0.0;
	321	 400.0	 -13.198	 200.0	 -50.0	 1.05	 100.0	 1	 400.0	 100.0	 0.0	 0.0	 0.0	 0.0	 0.0	 0.0	 0.0	 0.0	 0.0	 0.0	 0.0;
	322	 50.0	 -6.683	 16.0	 -10.0	 1.05	 100.0	 1	 50.0	 10.0	 0.0	 0.0	 0.0	 0.0	 0.0	 0.0	 0.0	 0.0	 0.0	 0.0	 0.0;
	322	 50.0	 -6.683	 16.0	 -10.0	 1.05	 100.0	 1	 50.0	 10.0	 0.0	 0.0	 0.0	 0.0	 0.0	 0.0	 0.0	 0.0	 0.0	 0.0	 0.0;
	322	 50.0	 -6.683	 16.0	 -10.0	 1.05	 100.0	 1	 50.0	 10.0	 0.0	 0.0	 0.0	 0.0	 0.0	 0.0	 0.0	 0.0	 0.0	 0.0	 0.0;
	322	 50.0	 -6.683	 16.0	 -10.0	 1.05	 100.0	 1	 50.0	 10.0	 0.0	 0.0	 0.0	 0.0	 0.0	 0.0	 0.0	 0.0	 0.0	 0.0	 0.0;
	322	 50.0	 -6.683	 16.0	 -10.0	 1.05	 100.0	 1	 50.0	 10.0	 0.0	 0.0	 0.0	 0.0	 0.0	 0.0	 0.0	 0.0	 0.0	 0.0	 0.0;
	322	 50.0	 -6.683	 16.0	 -10.0	 1.05	 100.0	 1	 50.0	 10.0	 0.0	 0.0	 0.0	 0.0	 0.0	 0.0	 0.0	 0.0	 0.0	 0.0	 0.0;
	323	 155.0	 1.045	 80.0	 -50.0	 1.05	 100.0	 1	 155.0	 54.3	 0.0	 0.0	 0.0	 0.0	 0.0	 0.0	 0.0	 0.0	 0.0	 0.0	 0.0;
	323	 155.0	 1.045	 80.0	 -50.0	 1.05	 100.0	 1	 155.0	 54.3	 0.0	 0.0	 0.0	 0.0	 0.0	 0.0	 0.0	 0.0	 0.0	 0.0	 0.0;
	323	 350.0	 38.06	 150.0	 -25.0	 1.05	 100.0	 1	 350.0	 140.0	 0.0	 0.0	 0.0	 0.0	 0.0	 0.0	 0.0	 0.0	 0.0	 0.0	 0.0;
];

%% generator cost data
%	2	startup	shutdown	n	c(n-1)	...	c0
mpc.gencost = [
	2	 1500.0	 0.0	 3	   0.000000	 130.000000	 400.684900;
	2	 1500.0	 0.0	 3	   0.000000	 130.000000	 400.684900;
	2	 1500.0	 0.0	 3	   0.014142	  16.081100	 212.307600;
	2	 1500.0	 0.0	 3	   0.014142	  16.081100	 212.307600;
	2	 1500.0	 0.0	 3	   0.000000	 130.000000	 400.684900;
	2	 1500.0	 0.0	 3	   0.000000	 130.000000	 400.684900;
	2	 1500.0	 0.0	 3	   0.014142	  16.081100	 212.307600;
	2	 1500.0	 0.0	 3	   0.014142	  16.081100	 212.307600;
	2	 1500.0	 0.0	 3	   0.052672	  43.661500	 781.521000;
	2	 1500.0	 0.0	 3	   0.052672	  43.661500	 781.521000;
	2	 1500.0	 0.0	 3	   0.052672	  43.661500	 781.521000;
	2	 1500.0	 0.0	 3	   0.007170	  48.580400	 832.757500;
	2	 1500.0	 0.0	 3	   0.007170	  48.580400	 832.757500;
	2	 1500.0	 0.0	 3	   0.007170	  48.580400	 832.757500;
	2	 1500.0	 0.0	 3	   0.000000	   0.000000	   0.000000;
	2	 1500.0	 0.0	 3	   0.328412	  56.564000	  86.385200;
	2	 1500.0	 0.0	 3	   0.328412	  56.564000	  86.385200;
	2	 1500.0	 0.0	 3	   0.328412	  56.564000	  86.385200;
	2	 1500.0	 0.0	 3	   0.328412	  56.564000	  86.385200;
	2	 1500.0	 0.0	 3	   0.328412	  56.564000	  86.385200;
	2	 1500.0	 0.0	 3	   0.008342	  12.388300	 382.239100;
	2	 1500.0	 0.0	 3	   0.008342	  12.388300	 382.239100;
	2	 1500.0	 0.0	 3	   0.000213	   4.423100	 395.374900;
	2	 1500.0	 0.0	 3	   0.000213	   4.423100	 395.374900;
	2	 1500.0	 0.0	 3	   0.000000	   0.001000	   0.001000;
	2	 1500.0	 0.0	 3	   0.000000	   0.001000	   0.001000;
	2	 1500.0	 0.0	 3	   0.000000	   0.001000	   0.001000;
	2	 1500.0	 0.0	 3	   0.000000	   0.001000	   0.001000;
	2	 1500.0	 0.0	 3	   0.000000	   0.001000	   0.001000;
	2	 1500.0	 0.0	 3	   0.000000	   0.001000	   0.001000;
	2	 1500.0	 0.0	 3	   0.008342	  12.388300	 382.239100;
	2	 1500.0	 0.0	 3	   0.008342	  12.388300	 382.239100;
	2	 1500.0	 0.0	 3	   0.004895	  11.849500	 665.109400;
	2	 1500.0	 0.0	 3	   0.000000	 130.000000	 400.684900;
	2	 1500.0	 0.0	 3	   0.000000	 130.000000	 400.684900;
	2	 1500.0	 0.0	 3	   0.014142	  16.081100	 212.307600;
	2	 1500.0	 0.0	 3	   0.014142	  16.081100	 212.307600;
	2	 1500.0	 0.0	 3	   0.000000	 130.000000	 400.684900;
	2	 1500.0	 0.0	 3	   0.000000	 130.000000	 400.684900;
	2	 1500.0	 0.0	 3	   0.014142	  16.081100	 212.307600;
	2	 1500.0	 0.0	 3	   0.014142	  16.081100	 212.307600;
	2	 1500.0	 0.0	 3	   0.052672	  43.661500	 781.521000;
	2	 1500.0	 0.0	 3	   0.052672	  43.661500	 781.521000;
	2	 1500.0	 0.0	 3	   0.052672	  43.661500	 781.521000;
	2	 1500.0	 0.0	 3	   0.007170	  48.580400	 832.757500;
	2	 1500.0	 0.0	 3	   0.007170	  48.580400	 832.757500;
	2	 1500.0	 0.0	 3	   0.007170	  48.580400	 832.757500;
	2	 1500.0	 0.0	 3	   0.000000	   0.000000	   0.000000;
	2	 1500.0	 0.0	 3	   0.328412	  56.564000	  86.385200;
	2	 1500.0	 0.0	 3	   0.328412	  56.564000	  86.385200;
	2	 1500.0	 0.0	 3	   0.328412	  56.564000	  86.385200;
	2	 1500.0	 0.0	 3	   0.328412	  56.564000	  86.385200;
	2	 1500.0	 0.0	 3	   0.328412	  56.564000	  86.385200;
	2	 1500.0	 0.0	 3	   0.008342	  12.388300	 382.239100;
	2	 1500.0	 0.0	 3	   0.008342	  12.388300	 382.239100;
	2	 1500.0	 0.0	 3	   0.000213	   4.423100	 395.374900;
	2	 1500.0	 0.0	 3	   0.000213	   4.423100	 395.374900;
	2	 1500.0	 0.0	 3	   0.000000	   0.001000	   0.001000;
	2	 1500.0	 0.0	 3	   0.000000	   0.001000	   0.001000;
	2	 1500.0	 0.0	 3	   0.000000	   0.001000	   0.001000;
	2	 1500.0	 0.0	 3	   0.000000	   0.001000	   0.001000;
	2	 1500.0	 0.0	 3	   0.000000	   0.001000	   0.001000;
	2	 1500.0	 0.0	 3	   0.000000	   0.001000	   0.001000;
	2	 1500.0	 0.0	 3	   0.008342	  12.388300	 382.239100;
	2	 1500.0	 0.0	 3	   0.008342	  12.388300	 382.239100;
	2	 1500.0	 0.0	 3	   0.004895	  11.849500	 665.109400;
	2	 1500.0	 0.0	 3	   0.000000	 130.000000	 400.684900;
	2	 1500.0	 0.0	 3	   0.000000	 130.000000	 400.684900;
	2	 1500.0	 0.0	 3	   0.014142	  16.081100	 212.307600;
	2	 1500.0	 0.0	 3	   0.014142	  16.081100	 212.307600;
	2	 1500.0	 0.0	 3	   0.000000	 130.000000	 400.684900;
	2	 1500.0	 0.0	 3	   0.000000	 130.000000	 400.684900;
	2	 1500.0	 0.0	 3	   0.014142	  16.081100	 212.307600;
	2	 1500.0	 0.0	 3	   0.014142	  16.081100	 212.307600;
	2	 1500.0	 0.0	 3	   0.052672	  43.661500	 781.521000;
	2	 1500.0	 0.0	 3	   0.052672	  43.661500	 781.521000;
	2	 1500.0	 0.0	 3	   0.052672	  43.661500	 781.521000;
	2	 1500.0	 0.0	 3	   0.007170	  48.580400	 832.757500;
	2	 1500.0	 0.0	 3	   0.007170	  48.580400	 832.757500;
	2	 1500.0	 0.0	 3	   0.007170	  48.580400	 832.757500;
	2	 1500.0	 0.0	 3	   0.000000	   0.000000	   0.000000;
	2	 1500.0	 0.0	 3	   0.328412	  56.564000	  86.385200;
	2	 1500.0	 0.0	 3	   0.328412	  56.564000	  86.385200;
	2	 1500.0	 0.0	 3	   0.328412	  56.564000	  86.385200;
	2	 1500.0	 0.0	 3	   0.328412	  56.564000	  86.385200;
	2	 1500.0	 0.0	 3	   0.328412	  56.564000	  86.385200;
	2	 1500.0	 0.0	 3	   0.008342	  12.388300	 382.239100;
	2	 1500.0	 0.0	 3	   0.008342	  12.388300	 382.239100;
	2	 1500.0	 0.0	 3	   0.000213	   4.423100	 395.374900;
	2	 1500.0	 0.0	 3	   0.000213	   4.423100	 395.374900;
	2	 1500.0	 0.0	 3	   0.000000	   0.001000	   0.001000;
	2	 1500.0	 0.0	 3	   0.000000	   0.001000	   0.001000;
	2	 1500.0	 0.0	 3	   0.000000	   0.001000	   0.001000;
	2	 1500.0	 0.0	 3	   0.000000	   0.001000	   0.001000;
	2	 1500.0	 0.0	 3	   0.000000	   0.001000	   0.001000;
	2	 1500.0	 0.0	 3	   0.000000	   0.001000	   0.001000;
	2	 1500.0	 0.0	 3	   0.008342	  12.388300	 382.239100;
	2	 1500.0	 0.0	 3	   0.008342	  12.388300	 382.239100;
	2	 1500.0	 0.0	 3	   0.004895	  11.849500	 665.109400;
];

%% branch data
%	fbus	tbus	r	x	b	rateA	rateB	rateC	ratio	angle	status	angmin	angmax
mpc.branch = [
	101	 102	 0.003	 0.014	 0.461	 175.0	 193.0	 200.0	 0.0	 0.0	 1	 -30.0	 30.0;
	101	 103	 0.055	 0.211	 0.057	 175.0	 208.0	 220.0	 0.0	 0.0	 1	 -30.0	 30.0;
	101	 105	 0.022	 0.085	 0.023	 175.0	 208.0	 220.0	 0.0	 0.0	 1	 -30.0	 30.0;
	102	 104	 0.033	 0.127	 0.034	 175.0	 208.0	 220.0	 0.0	 0.0	 1	 -30.0	 30.0;
	102	 106	 0.05	 0.192	 0.052	 175.0	 208.0	 220.0	 0.0	 0.0	 1	 -30.0	 30.0;
	103	 109	 0.031	 0.119	 0.032	 175.0	 208.0	 220.0	 0.0	 0.0	 1	 -30.0	 30.0;
	103	 124	 0.002	 0.084	 0.0	 400.0	 510.0	 600.0	 1.015	 0.0	 1	 -30.0	 30.0;
	104	 109	 0.027	 0.104	 0.028	 175.0	 208.0	 220.0	 0.0	 0.0	 1	 -30.0	 30.0;
	105	 110	 0.023	 0.088	 0.024	 175.0	 208.0	 220.0	 0.0	 0.0	 1	 -30.0	 30.0;
	106	 110	 0.014	 0.061	 2.459	 175.0	 193.0	 200.0	 0.0	 0.0	 1	 -30.0	 30.0;
	107	 108	 0.016	 0.061	 0.017	 175.0	 208.0	 220.0	 0.0	 0.0	 1	 -30.0	 30.0;
	107	 203	 0.042	 0.161	 0.044	 175.0	 208.0	 220.0	 0.0	 0.0	 1	 -30.0	 30.0;
	108	 109	 0.043	 0.165	 0.045	 175.0	 208.0	 220.0	 0.0	 0.0	 1	 -30.0	 30.0;
	108	 110	 0.043	 0.165	 0.045	 175.0	 208.0	 220.0	 0.0	 0.0	 1	 -30.0	 30.0;
	109	 111	 0.002	 0.084	 0.0	 400.0	 510.0	 600.0	 1.03	 0.0	 1	 -30.0	 30.0;
	109	 112	 0.002	 0.084	 0.0	 400.0	 510.0	 600.0	 1.03	 0.0	 1	 -30.0	 30.0;
	110	 111	 0.002	 0.084	 0.0	 400.0	 510.0	 600.0	 1.015	 0.0	 1	 -30.0	 30.0;
	110	 112	 0.002	 0.084	 0.0	 400.0	 510.0	 600.0	 1.015	 0.0	 1	 -30.0	 30.0;
	111	 113	 0.006	 0.048	 0.1	 500.0	 600.0	 625.0	 0.0	 0.0	 1	 -30.0	 30.0;
	111	 114	 0.005	 0.042	 0.088	 500.0	 600.0	 625.0	 0.0	 0.0	 1	 -30.0	 30.0;
	112	 113	 0.006	 0.048	 0.1	 500.0	 600.0	 625.0	 0.0	 0.0	 1	 -30.0	 30.0;
	112	 123	 0.012	 0.097	 0.203	 500.0	 600.0	 625.0	 0.0	 0.0	 1	 -30.0	 30.0;
	113	 123	 0.011	 0.087	 0.182	 500.0	 600.0	 625.0	 0.0	 0.0	 1	 -30.0	 30.0;
	113	 215	 0.01	 0.075	 0.158	 500.0	 600.0	 625.0	 0.0	 0.0	 1	 -30.0	 30.0;
	114	 116	 0.005	 0.059	 0.082	 500.0	 600.0	 625.0	 0.0	 0.0	 1	 -30.0	 30.0;
	115	 116	 0.002	 0.017	 0.036	 500.0	 600.0	 625.0	 0.0	 0.0	 1	 -30.0	 30.0;
	115	 121	 0.006	 0.049	 0.103	 500.0	 600.0	 625.0	 0.0	 0.0	 1	 -30.0	 30.0;
	115	 121	 0.006	 0.049	 0.103	 500.0	 600.0	 625.0	 0.0	 0.0	 1	 -30.0	 30.0;
	115	 124	 0.007	 0.052	 0.109	 500.0	 600.0	 625.0	 0.0	 0.0	 1	 -30.0	 30.0;
	116	 117	 0.003	 0.026	 0.055	 500.0	 600.0	 625.0	 0.0	 0.0	 1	 -30.0	 30.0;
	116	 119	 0.003	 0.023	 0.049	 500.0	 600.0	 625.0	 0.0	 0.0	 1	 -30.0	 30.0;
	117	 118	 0.002	 0.014	 0.03	 500.0	 600.0	 625.0	 0.0	 0.0	 1	 -30.0	 30.0;
	117	 122	 0.014	 0.105	 0.221	 500.0	 600.0	 625.0	 0.0	 0.0	 1	 -30.0	 30.0;
	118	 121	 0.003	 0.026	 0.055	 500.0	 600.0	 625.0	 0.0	 0.0	 1	 -30.0	 30.0;
	118	 121	 0.003	 0.026	 0.055	 500.0	 600.0	 625.0	 0.0	 0.0	 1	 -30.0	 30.0;
	119	 120	 0.005	 0.04	 0.083	 500.0	 600.0	 625.0	 0.0	 0.0	 1	 -30.0	 30.0;
	119	 120	 0.005	 0.04	 0.083	 500.0	 600.0	 625.0	 0.0	 0.0	 1	 -30.0	 30.0;
	120	 123	 0.003	 0.022	 0.046	 500.0	 600.0	 625.0	 0.0	 0.0	 1	 -30.0	 30.0;
	120	 123	 0.003	 0.022	 0.046	 500.0	 600.0	 625.0	 0.0	 0.0	 1	 -30.0	 30.0;
	121	 122	 0.009	 0.068	 0.142	 500.0	 600.0	 625.0	 0.0	 0.0	 1	 -30.0	 30.0;
	123	 217	 0.01	 0.074	 0.155	 500.0	 600.0	 625.0	 0.0	 0.0	 1	 -30.0	 30.0;
	201	 202	 0.003	 0.014	 0.461	 175.0	 193.0	 200.0	 0.0	 0.0	 1	 -30.0	 30.0;
	201	 203	 0.055	 0.211	 0.057	 175.0	 208.0	 220.0	 0.0	 0.0	 1	 -30.0	 30.0;
	201	 205	 0.022	 0.085	 0.023	 175.0	 208.0	 220.0	 0.0	 0.0	 1	 -30.0	 30.0;
	202	 204	 0.033	 0.127	 0.034	 175.0	 208.0	 220.0	 0.0	 0.0	 1	 -30.0	 30.0;
	202	 206	 0.05	 0.192	 0.052	 175.0	 208.0	 220.0	 0.0	 0.0	 1	 -30.0	 30.0;
	203	 209	 0.031	 0.119	 0.032	 175.0	 208.0	 220.0	 0.0	 0.0	 1	 -30.0	 30.0;
	203	 224	 0.002	 0.084	 0.0	 400.0	 510.0	 600.0	 1.015	 0.0	 1	 -30.0	 30.0;
	204	 209	 0.027	 0.104	 0.028	 175.0	 208.0	 220.0	 0.0	 0.0	 1	 -30.0	 30.0;
	205	 210	 0.023	 0.088	 0.024	 175.0	 208.0	 220.0	 0.0	 0.0	 1	 -30.0	 30.0;
	206	 210	 0.014	 0.061	 2.459	 175.0	 193.0	 200.0	 0.0	 0.0	 1	 -30.0	 30.0;
	207	 208	 0.016	 0.061	 0.017	 175.0	 208.0	 220.0	 0.0	 0.0	 1	 -30.0	 30.0;
	208	 209	 0.043	 0.165	 0.045	 175.0	 208.0	 220.0	 0.0	 0.0	 1	 -30.0	 30.0;
	208	 210	 0.043	 0.165	 0.045	 175.0	 208.0	 220.0	 0.0	 0.0	 1	 -30.0	 30.0;
	209	 211	 0.002	 0.084	 0.0	 400.0	 510.0	 600.0	 1.03	 0.0	 1	 -30.0	 30.0;
	209	 212	 0.002	 0.084	 0.0	 400.0	 510.0	 600.0	 1.03	 0.0	 1	 -30.0	 30.0;
	210	 211	 0.002	 0.084	 0.0	 400.0	 510.0	 600.0	 1.015	 0.0	 1	 -30.0	 30.0;
	210	 212	 0.002	 0.084	 0.0	 400.0	 510.0	 600.0	 1.015	 0.0	 1	 -30.0	 30.0;
	211	 213	 0.006	 0.048	 0.1	 500.0	 600.0	 625.0	 0.0	 0.0	 1	 -30.0	 30.0;
	211	 214	 0.005	 0.042	 0.088	 500.0	 600.0	 625.0	 0.0	 0.0	 1	 -30.0	 30.0;
	212	 213	 0.006	 0.048	 0.1	 500.0	 600.0	 625.0	 0.0	 0.0	 1	 -30.0	 30.0;
	212	 223	 0.012	 0.097	 0.203	 500.0	 600.0	 625.0	 0.0	 0.0	 1	 -30.0	 30.0;
	213	 223	 0.011	 0.087	 0.182	 500.0	 600.0	 625.0	 0.0	 0.0	 1	 -30.0	 30.0;
	214	 216	 0.005	 0.059	 0.082	 500.0	 600.0	 625.0	 0.0	 0.0	 1	 -30.0	 30.0;
	215	 216	 0.002	 0.017	 0.036	 500.0	 600.0	 625.0	 0.0	 0.0	 1	 -30.0	 30.0;
	215	 221	 0.006	 0.049	 0.103	 500.0	 600.0	 625.0	 0.0	 0.0	 1	 -30.0	 30.0;
	215	 221	 0.006	 0.049	 0.103	 500.0	 600.0	 625.0	 0.0	 0.0	 1	 -30.0	 30.0;
	215	 224	 0.007	 0.052	 0.109	 500.0	 600.0	 625.0	 0.0	 0.0	 1	 -30.0	 30.0;
	216	 217	 0.003	 0.026	 0.055	 500.0	 600.0	 625.0	 0.0	 0.0	 1	 -30.0	 30.0;
	216	 219	 0.003	 0.023	 0.049	 500.0	 600.0	 625.0	 0.0	 0.0	 1	 -30.0	 30.0;
	217	 218	 0.002	 0.014	 0.03	 500.0	 600.0	 625.0	 0.0	 0.0	 1	 -30.0	 30.0;
	217	 222	 0.014	 0.105	 0.221	 500.0	 600.0	 625.0	 0.0	 0.0	 1	 -30.0	 30.0;
	218	 221	 0.003	 0.026	 0.055	 500.0	 600.0	 625.0	 0.0	 0.0	 1	 -30.0	 30.0;
	218	 221	 0.003	 0.026	 0.055	 500.0	 600.0	 625.0	 0.0	 0.0	 1	 -30.0	 30.0;
	219	 220	 0.005	 0.04	 0.083	 500.0	 600.0	 625.0	 0.0	 0.0	 1	 -30.0	 30.0;
	219	 220	 0.005	 0.04	 0.083	 500.0	 600.0	 625.0	 0.0	 0.0	 1	 -30.0	 30.0;
	220	 223	 0.003	 0.022	 0.046	 500.0	 600.0	 625.0	 0.0	 0.0	 1	 -30.0	 30.0;
	220	 223	 0.003	 0.022	 0.046	 500.0	 600.0	 625.0	 0.0	 0.0	 1	 -30.0	 30.0;
	221	 222	 0.009	 0.068	 0.142	 500.0	 600.0	 625.0	 0.0	 0.0	 1	 -30.0	 30.0;
	301	 302	 0.003	 0.014	 0.461	 175.0	 193.0	 200.0	 0.0	 0.0	 1	 -30.0	 30.0;
	301	 303	 0.055	 0.211	 0.057	 175.0	 208.0	 220.0	 0.0	 0.0	 1	 -30.0	 30.0;
	301	 305	 0.022	 0.085	 0.023	 175.0	 208.0	 220.0	 0.0	 0.0	 1	 -30.0	 30.0;
	302	 304	 0.033	 0.127	 0.034	 175.0	 208.0	 220.0	 0.0	 0.0	 1	 -30.0	 30.0;
	302	 306	 0.05	 0.192	 0.052	 175.0	 208.0	 220.0	 0.0	 0.0	 1	 -30.0	 30.0;
	303	 309	 0.031	 0.119	 0.032	 175.0	 208.0	 220.0	 0.0	 0.0	 1	 -30.0	 30.0;
	303	 324	 0.002	 0.084	 0.0	 400.0	 510.0	 600.0	 1.015	 0.0	 1	 -30.0	 30.0;
	304	 309	 0.027	 0.104	 0.028	 175.0	 208.0	 220.0	 0.0	 0.0	 1	 -30.0	 30.0;
	305	 310	 0.023	 0.088	 0.024	 175.0	 208.0	 220.0	 0.0	 0.0	 1	 -30.0	 30.0;
	306	 310	 0.014	 0.061	 2.459	 175.0	 193.0	 200.0	 0.0	 0.0	 1	 -30.0	 30.0;
	307	 308	 0.016	 0.061	 0.017	 175.0	 208.0	 220.0	 0.0	 0.0	 1	 -30.0	 30.0;
	308	 309	 0.043	 0.165	 0.045	 175.0	 208.0	 220.0	 0.0	 0.0	 1	 -30.0	 30.0;
	308	 310	 0.043	 0.165	 0.045	 175.0	 208.0	 220.0	 0.0	 0.0	 1	 -30.0	 30.0;
	309	 311	 0.002	 0.084	 0.0	 400.0	 510.0	 600.0	 1.03	 0.0	 1	 -30.0	 30.0;
	309	 312	 0.002	 0.084	 0.0	 400.0	 510.0	 600.0	 1.03	 0.0	 1	 -30.0	 30.0;
	310	 311	 0.002	 0.084	 0.0	 400.0	 510.0	 600.0	 1.015	 0.0	 1	 -30.0	 30.0;
	310	 312	 0.002	 0.084	 0.0	 400.0	 510.0	 600.0	 1.015	 0.0	 1	 -30.0	 30.0;
	311	 313	 0.006	 0.048	 0.1	 500.0	 600.0	 625.0	 0.0	 0.0	 1	 -30.0	 30.0;
	311	 314	 0.005	 0.042	 0.088	 500.0	 600.0	 625.0	 0.0	 0.0	 1	 -30.0	 30.0;
	312	 313	 0.006	 0.048	 0.1	 500.0	 600.0	 625.0	 0.0	 0.0	 1	 -30.0	 30.0;
	312	 323	 0.012	 0.097	 0.203	 500.0	 600.0	 625.0	 0.0	 0.0	 1	 -30.0	 30.0;
	313	 323	 0.011	 0.087	 0.182	 500.0	 600.0	 625.0	 0.0	 0.0	 1	 -30.0	 30.0;
	314	 316	 0.005	 0.059	 0.082	 500.0	 600.0	 625.0	 0.0	 0.0	 1	 -30.0	 30.0;
	315	 316	 0.002	 0.017	 0.036	 500.0	 600.0	 625.0	 0.0	 0.0	 1	 -30.0	 30.0;
	315	 321	 0.006	 0.049	 0.103	 500.0	 600.0	 625.0	 0.0	 0.0	 1	 -30.0	 30.0;
	315	 321	 0.006	 0.049	 0.103	 500.0	 600.0	 625.0	 0.0	 0.0	 1	 -30.0	 30.0;
	315	 324	 0.007	 0.052	 0.109	 500.0	 600.0	 625.0	 0.0	 0.0	 1	 -30.0	 30.0;
	316	 317	 0.003	 0.026	 0.055	 500.0	 600.0	 625.0	 0.0	 0.0	 1	 -30.0	 30.0;
	316	 319	 0.003	 0.023	 0.049	 500.0	 600.0	 625.0	 0.0	 0.0	 1	 -30.0	 30.0;
	317	 318	 0.002	 0.014	 0.03	 500.0	 600.0	 625.0	 0.0	 0.0	 1	 -30.0	 30.0;
	317	 322	 0.014	 0.105	 0.221	 500.0	 600.0	 625.0	 0.0	 0.0	 1	 -30.0	 30.0;
	318	 321	 0.003	 0.026	 0.055	 500.0	 600.0	 625.0	 0.0	 0.0	 1	 -30.0	 30.0;
	318	 321	 0.003	 0.026	 0.055	 500.0	 600.0	 625.0	 0.0	 0.0	 1	 -30.0	 30.0;
	319	 320	 0.005	 0.04	 0.083	 500.0	 600.0	 625.0	 0.0	 0.0	 1	 -30.0	 30.0;
	319	 320	 0.005	 0.04	 0.083	 500.0	 600.0	 625.0	 0.0	 0.0	 1	 -30.0	 30.0;
	320	 323	 0.003	 0.022	 0.046	 500.0	 600.0	 625.0	 0.0	 0.0	 1	 -30.0	 30.0;
	320	 323	 0.003	 0.022	 0.046	 500.0	 600.0	 625.0	 0.0	 0.0	 1	 -30.0	 30.0;
	321	 322	 0.009	 0.068	 0.142	 500.0	 600.0	 625.0	 0.0	 0.0	 1	 -30.0	 30.0;
	325	 121	 0.012	 0.097	 0.203	 500.0	 600.0	 625.0	 0.0	 0.0	 1	 -30.0	 30.0;
	318	 223	 0.013	 0.104	 0.218	 500.0	 600.0	 625.0	 0.0	 0.0	 1	 -30.0	 30.0;
	323	 325	 0.0	 0.009	 0.0	 722.0	 893.0	 893.0	 0.0	 0.0	 1	 -30.0	 30.0;
];

% INFO    : === Translation Options ===
% INFO    : Phase Angle Bound:           30.0 (deg.)
% INFO    : AC OPF Solution File:        nesta_case73_ieee_rts.m.opf.sol
% INFO    : 
% INFO    : === Voltage Setpoint Replacement Notes ===
% INFO    : Bus 101	: V=1.0, theta=0.0 -> V=1.04777, theta=-7.74149
% INFO    : Bus 102	: V=1.0, theta=0.0 -> V=1.04782, theta=-7.81786
% INFO    : Bus 103	: V=1.0, theta=0.0 -> V=1.01085, theta=-7.21088
% INFO    : Bus 104	: V=1.0, theta=0.0 -> V=1.01765, theta=-10.56613
% INFO    : Bus 105	: V=1.0, theta=0.0 -> V=1.03568, theta=-10.70885
% INFO    : Bus 106	: V=1.0, theta=0.0 -> V=1.03242, theta=-13.27943
% INFO    : Bus 107	: V=1.0, theta=0.0 -> V=1.03745, theta=-11.27674
% INFO    : Bus 108	: V=1.0, theta=0.0 -> V=1.01024, theta=-13.74966
% INFO    : Bus 109	: V=1.0, theta=0.0 -> V=1.0261, theta=-8.81522
% INFO    : Bus 110	: V=1.0, theta=0.0 -> V=1.05, theta=-10.62066
% INFO    : Bus 111	: V=1.0, theta=0.0 -> V=1.02764, theta=-3.91672
% INFO    : Bus 112	: V=1.0, theta=0.0 -> V=1.02024, theta=-2.42423
% INFO    : Bus 113	: V=1.0, theta=0.0 -> V=1.03943, theta=-0.0
% INFO    : Bus 114	: V=1.0, theta=0.0 -> V=1.04402, theta=-1.73059
% INFO    : Bus 115	: V=1.0, theta=0.0 -> V=1.04335, theta=7.95971
% INFO    : Bus 116	: V=1.0, theta=0.0 -> V=1.04565, theta=7.56927
% INFO    : Bus 117	: V=1.0, theta=0.0 -> V=1.04782, theta=11.43416
% INFO    : Bus 118	: V=1.0, theta=0.0 -> V=1.05, theta=12.52456
% INFO    : Bus 119	: V=1.0, theta=0.0 -> V=1.03962, theta=6.65779
% INFO    : Bus 120	: V=1.0, theta=0.0 -> V=1.04399, theta=7.74058
% INFO    : Bus 121	: V=1.0, theta=0.0 -> V=1.05, theta=13.08653
% INFO    : Bus 122	: V=1.0, theta=0.0 -> V=1.05, theta=18.94979
% INFO    : Bus 123	: V=1.0, theta=0.0 -> V=1.05, theta=9.05618
% INFO    : Bus 124	: V=1.0, theta=0.0 -> V=1.01155, theta=2.38338
% INFO    : Bus 201	: V=1.0, theta=0.0 -> V=1.04841, theta=-10.68972
% INFO    : Bus 202	: V=1.0, theta=0.0 -> V=1.04844, theta=-10.75906
% INFO    : Bus 203	: V=1.0, theta=0.0 -> V=1.01886, theta=-10.47451
% INFO    : Bus 204	: V=1.0, theta=0.0 -> V=1.0189, theta=-13.48477
% INFO    : Bus 205	: V=1.0, theta=0.0 -> V=1.03603, theta=-13.61186
% INFO    : Bus 206	: V=1.0, theta=0.0 -> V=1.03259, theta=-16.15672
% INFO    : Bus 207	: V=1.0, theta=0.0 -> V=1.03973, theta=-13.46605
% INFO    : Bus 208	: V=1.0, theta=0.0 -> V=1.01203, theta=-16.22358
% INFO    : Bus 209	: V=1.0, theta=0.0 -> V=1.02781, theta=-11.72409
% INFO    : Bus 210	: V=1.0, theta=0.0 -> V=1.05, theta=-13.47986
% INFO    : Bus 211	: V=1.0, theta=0.0 -> V=1.02735, theta=-6.93338
% INFO    : Bus 212	: V=1.0, theta=0.0 -> V=1.01921, theta=-5.25332
% INFO    : Bus 213	: V=1.0, theta=0.0 -> V=1.03752, theta=-3.21511
% INFO    : Bus 214	: V=1.0, theta=0.0 -> V=1.04335, theta=-4.6852
% INFO    : Bus 215	: V=1.0, theta=0.0 -> V=1.04327, theta=4.63349
% INFO    : Bus 216	: V=1.0, theta=0.0 -> V=1.04556, theta=4.70011
% INFO    : Bus 217	: V=1.0, theta=0.0 -> V=1.04847, theta=8.81842
% INFO    : Bus 218	: V=1.0, theta=0.0 -> V=1.05, theta=9.99473
% INFO    : Bus 219	: V=1.0, theta=0.0 -> V=1.03946, theta=4.21233
% INFO    : Bus 220	: V=1.0, theta=0.0 -> V=1.0438, theta=5.66449
% INFO    : Bus 221	: V=1.0, theta=0.0 -> V=1.05, theta=10.63208
% INFO    : Bus 222	: V=1.0, theta=0.0 -> V=1.05, theta=16.43201
% INFO    : Bus 223	: V=1.0, theta=0.0 -> V=1.05, theta=7.1815
% INFO    : Bus 224	: V=1.0, theta=0.0 -> V=1.01456, theta=-0.96007
% INFO    : Bus 301	: V=1.0, theta=0.0 -> V=1.0486, theta=-9.34819
% INFO    : Bus 302	: V=1.0, theta=0.0 -> V=1.04864, theta=-9.43099
% INFO    : Bus 303	: V=1.0, theta=0.0 -> V=1.01045, theta=-8.57688
% INFO    : Bus 304	: V=1.0, theta=0.0 -> V=1.01785, theta=-12.18784
% INFO    : Bus 305	: V=1.0, theta=0.0 -> V=1.03609, theta=-12.35006
% INFO    : Bus 306	: V=1.0, theta=0.0 -> V=1.0326, theta=-14.94207
% INFO    : Bus 307	: V=1.0, theta=0.0 -> V=1.03804, theta=-12.54794
% INFO    : Bus 308	: V=1.0, theta=0.0 -> V=1.01056, theta=-15.18287
% INFO    : Bus 309	: V=1.0, theta=0.0 -> V=1.02579, theta=-10.44616
% INFO    : Bus 310	: V=1.0, theta=0.0 -> V=1.05, theta=-12.30116
% INFO    : Bus 311	: V=1.0, theta=0.0 -> V=1.0283, theta=-5.74067
% INFO    : Bus 312	: V=1.0, theta=0.0 -> V=1.019, theta=-4.14602
% INFO    : Bus 313	: V=1.0, theta=0.0 -> V=1.03802, theta=-2.41514
% INFO    : Bus 314	: V=1.0, theta=0.0 -> V=1.04631, theta=-3.20793
% INFO    : Bus 315	: V=1.0, theta=0.0 -> V=1.043, theta=7.0509
% INFO    : Bus 316	: V=1.0, theta=0.0 -> V=1.04558, theta=6.59877
% INFO    : Bus 317	: V=1.0, theta=0.0 -> V=1.04785, theta=10.3442
% INFO    : Bus 318	: V=1.0, theta=0.0 -> V=1.05, theta=11.34263
% INFO    : Bus 319	: V=1.0, theta=0.0 -> V=1.03953, theta=5.91541
% INFO    : Bus 320	: V=1.0, theta=0.0 -> V=1.04389, theta=7.19709
% INFO    : Bus 321	: V=1.0, theta=0.0 -> V=1.05, theta=12.34121
% INFO    : Bus 322	: V=1.0, theta=0.0 -> V=1.05, theta=18.06915
% INFO    : Bus 323	: V=1.0, theta=0.0 -> V=1.05, theta=8.62114
% INFO    : Bus 324	: V=1.0, theta=0.0 -> V=1.01046, theta=1.30608
% INFO    : Bus 325	: V=1.0, theta=0.0 -> V=1.04986, theta=8.99331
% INFO    : 
% INFO    : === Generator Setpoint Replacement Notes ===
% INFO    : Gen at bus 101	: Pg=10.0, Qg=0.0 -> Pg=16.0, Qg=4.88
% INFO    : Gen at bus 101	: Vg=1.035 -> Vg=1.04777
% INFO    : Gen at bus 101	: Pg=10.0, Qg=0.0 -> Pg=16.0, Qg=4.88
% INFO    : Gen at bus 101	: Vg=1.035 -> Vg=1.04777
% INFO    : Gen at bus 101	: Pg=76.0, Qg=14.1 -> Pg=76.0, Qg=-1.077
% INFO    : Gen at bus 101	: Vg=1.035 -> Vg=1.04777
% INFO    : Gen at bus 101	: Pg=76.0, Qg=14.1 -> Pg=76.0, Qg=-1.077
% INFO    : Gen at bus 101	: Vg=1.035 -> Vg=1.04777
% INFO    : Gen at bus 102	: Pg=10.0, Qg=0.0 -> Pg=16.0, Qg=4.82
% INFO    : Gen at bus 102	: Vg=1.035 -> Vg=1.04782
% INFO    : Gen at bus 102	: Pg=10.0, Qg=0.0 -> Pg=16.0, Qg=4.82
% INFO    : Gen at bus 102	: Vg=1.035 -> Vg=1.04782
% INFO    : Gen at bus 102	: Pg=76.0, Qg=7.0 -> Pg=76.0, Qg=-2.741
% INFO    : Gen at bus 102	: Vg=1.035 -> Vg=1.04782
% INFO    : Gen at bus 102	: Pg=76.0, Qg=7.0 -> Pg=76.0, Qg=-2.741
% INFO    : Gen at bus 102	: Vg=1.035 -> Vg=1.04782
% INFO    : Gen at bus 107	: Pg=80.0, Qg=17.2 -> Pg=66.816, Qg=20.616
% INFO    : Gen at bus 107	: Vg=1.025 -> Vg=1.03745
% INFO    : Gen at bus 107	: Pg=80.0, Qg=17.2 -> Pg=66.816, Qg=20.616
% INFO    : Gen at bus 107	: Vg=1.025 -> Vg=1.03745
% INFO    : Gen at bus 107	: Pg=80.0, Qg=17.2 -> Pg=66.816, Qg=20.616
% INFO    : Gen at bus 107	: Vg=1.025 -> Vg=1.03745
% INFO    : Gen at bus 113	: Pg=95.1, Qg=40.7 -> Pg=69.0, Qg=36.655
% INFO    : Gen at bus 113	: Vg=1.02 -> Vg=1.03943
% INFO    : Gen at bus 113	: Pg=95.1, Qg=40.7 -> Pg=69.0, Qg=36.655
% INFO    : Gen at bus 113	: Vg=1.02 -> Vg=1.03943
% INFO    : Gen at bus 113	: Pg=95.1, Qg=40.7 -> Pg=69.0, Qg=36.655
% INFO    : Gen at bus 113	: Vg=1.02 -> Vg=1.03943
% INFO    : Gen at bus 114	: Pg=0.0, Qg=13.7 -> Pg=0.0, Qg=106.688
% INFO    : Gen at bus 114	: Vg=0.98 -> Vg=1.04402
% INFO    : Gen at bus 115	: Pg=12.0, Qg=0.0 -> Pg=2.4, Qg=6.0
% INFO    : Gen at bus 115	: Vg=1.014 -> Vg=1.04335
% INFO    : Gen at bus 115	: Pg=12.0, Qg=0.0 -> Pg=2.4, Qg=6.0
% INFO    : Gen at bus 115	: Vg=1.014 -> Vg=1.04335
% INFO    : Gen at bus 115	: Pg=12.0, Qg=0.0 -> Pg=2.4, Qg=6.0
% INFO    : Gen at bus 115	: Vg=1.014 -> Vg=1.04335
% INFO    : Gen at bus 115	: Pg=12.0, Qg=0.0 -> Pg=2.4, Qg=6.0
% INFO    : Gen at bus 115	: Vg=1.014 -> Vg=1.04335
% INFO    : Gen at bus 115	: Pg=12.0, Qg=0.0 -> Pg=2.4, Qg=6.0
% INFO    : Gen at bus 115	: Vg=1.014 -> Vg=1.04335
% INFO    : Gen at bus 115	: Pg=155.0, Qg=0.05 -> Pg=155.0, Qg=80.0
% INFO    : Gen at bus 115	: Vg=1.014 -> Vg=1.04335
% INFO    : Gen at bus 116	: Pg=155.0, Qg=25.22 -> Pg=155.0, Qg=80.0
% INFO    : Gen at bus 116	: Vg=1.017 -> Vg=1.04565
% INFO    : Gen at bus 118	: Pg=400.0, Qg=137.4 -> Pg=400.0, Qg=66.602
% INFO    : Gen at bus 118	: Vg=1.05 -> Vg=1.05
% INFO    : Gen at bus 121	: Pg=400.0, Qg=108.2 -> Pg=400.0, Qg=-25.009
% INFO    : Gen at bus 121	: Vg=1.05 -> Vg=1.05
% INFO    : Gen at bus 122	: Pg=50.0, Qg=-4.96 -> Pg=50.0, Qg=-6.699
% INFO    : Gen at bus 122	: Vg=1.05 -> Vg=1.05
% INFO    : Gen at bus 122	: Pg=50.0, Qg=-4.96 -> Pg=50.0, Qg=-6.699
% INFO    : Gen at bus 122	: Vg=1.05 -> Vg=1.05
% INFO    : Gen at bus 122	: Pg=50.0, Qg=-4.96 -> Pg=50.0, Qg=-6.699
% INFO    : Gen at bus 122	: Vg=1.05 -> Vg=1.05
% INFO    : Gen at bus 122	: Pg=50.0, Qg=-4.96 -> Pg=50.0, Qg=-6.699
% INFO    : Gen at bus 122	: Vg=1.05 -> Vg=1.05
% INFO    : Gen at bus 122	: Pg=50.0, Qg=-4.96 -> Pg=50.0, Qg=-6.699
% INFO    : Gen at bus 122	: Vg=1.05 -> Vg=1.05
% INFO    : Gen at bus 122	: Pg=50.0, Qg=-4.96 -> Pg=50.0, Qg=-6.699
% INFO    : Gen at bus 122	: Vg=1.05 -> Vg=1.05
% INFO    : Gen at bus 123	: Pg=155.0, Qg=31.79 -> Pg=155.0, Qg=-3.225
% INFO    : Gen at bus 123	: Vg=1.05 -> Vg=1.05
% INFO    : Gen at bus 123	: Pg=155.0, Qg=31.79 -> Pg=155.0, Qg=-3.225
% INFO    : Gen at bus 123	: Vg=1.05 -> Vg=1.05
% INFO    : Gen at bus 123	: Pg=350.0, Qg=71.78 -> Pg=350.0, Qg=31.244
% INFO    : Gen at bus 123	: Vg=1.05 -> Vg=1.05
% INFO    : Gen at bus 201	: Pg=10.0, Qg=0.0 -> Pg=16.0, Qg=4.824
% INFO    : Gen at bus 201	: Vg=1.035 -> Vg=1.04841
% INFO    : Gen at bus 201	: Pg=10.0, Qg=0.0 -> Pg=16.0, Qg=4.824
% INFO    : Gen at bus 201	: Vg=1.035 -> Vg=1.04841
% INFO    : Gen at bus 201	: Pg=76.0, Qg=14.1 -> Pg=76.0, Qg=-2.64
% INFO    : Gen at bus 201	: Vg=1.035 -> Vg=1.04841
% INFO    : Gen at bus 201	: Pg=76.0, Qg=14.1 -> Pg=76.0, Qg=-2.64
% INFO    : Gen at bus 201	: Vg=1.035 -> Vg=1.04841
% INFO    : Gen at bus 202	: Pg=10.0, Qg=0.0 -> Pg=16.0, Qg=4.811
% INFO    : Gen at bus 202	: Vg=1.035 -> Vg=1.04844
% INFO    : Gen at bus 202	: Pg=10.0, Qg=0.0 -> Pg=16.0, Qg=4.811
% INFO    : Gen at bus 202	: Vg=1.035 -> Vg=1.04844
% INFO    : Gen at bus 202	: Pg=76.0, Qg=7.0 -> Pg=76.0, Qg=-2.989
% INFO    : Gen at bus 202	: Vg=1.035 -> Vg=1.04844
% INFO    : Gen at bus 202	: Pg=76.0, Qg=7.0 -> Pg=76.0, Qg=-2.989
% INFO    : Gen at bus 202	: Vg=1.035 -> Vg=1.04844
% INFO    : Gen at bus 207	: Pg=80.0, Qg=17.2 -> Pg=71.574, Qg=16.584
% INFO    : Gen at bus 207	: Vg=1.025 -> Vg=1.03973
% INFO    : Gen at bus 207	: Pg=80.0, Qg=17.2 -> Pg=71.574, Qg=16.584
% INFO    : Gen at bus 207	: Vg=1.025 -> Vg=1.03973
% INFO    : Gen at bus 207	: Pg=80.0, Qg=17.2 -> Pg=71.574, Qg=16.584
% INFO    : Gen at bus 207	: Vg=1.025 -> Vg=1.03973
% INFO    : Gen at bus 213	: Pg=95.1, Qg=40.7 -> Pg=90.186, Qg=35.467
% INFO    : Gen at bus 213	: Vg=1.02 -> Vg=1.03752
% INFO    : Gen at bus 213	: Pg=95.1, Qg=40.7 -> Pg=90.186, Qg=35.467
% INFO    : Gen at bus 213	: Vg=1.02 -> Vg=1.03752
% INFO    : Gen at bus 213	: Pg=95.1, Qg=40.7 -> Pg=90.186, Qg=35.467
% INFO    : Gen at bus 213	: Vg=1.02 -> Vg=1.03752
% INFO    : Gen at bus 214	: Pg=0.0, Qg=13.68 -> Pg=0.0, Qg=105.2
% INFO    : Gen at bus 214	: Vg=0.98 -> Vg=1.04335
% INFO    : Gen at bus 215	: Pg=12.0, Qg=0.0 -> Pg=2.4, Qg=6.0
% INFO    : Gen at bus 215	: Vg=1.014 -> Vg=1.04327
% INFO    : Gen at bus 215	: Pg=12.0, Qg=0.0 -> Pg=2.4, Qg=6.0
% INFO    : Gen at bus 215	: Vg=1.014 -> Vg=1.04327
% INFO    : Gen at bus 215	: Pg=12.0, Qg=0.0 -> Pg=2.4, Qg=6.0
% INFO    : Gen at bus 215	: Vg=1.014 -> Vg=1.04327
% INFO    : Gen at bus 215	: Pg=12.0, Qg=0.0 -> Pg=2.4, Qg=6.0
% INFO    : Gen at bus 215	: Vg=1.014 -> Vg=1.04327
% INFO    : Gen at bus 215	: Pg=12.0, Qg=0.0 -> Pg=2.4, Qg=6.0
% INFO    : Gen at bus 215	: Vg=1.014 -> Vg=1.04327
% INFO    : Gen at bus 215	: Pg=155.0, Qg=0.048 -> Pg=155.0, Qg=80.0
% INFO    : Gen at bus 215	: Vg=1.014 -> Vg=1.04327
% INFO    : Gen at bus 216	: Pg=155.0, Qg=25.22 -> Pg=155.0, Qg=80.0
% INFO    : Gen at bus 216	: Vg=1.017 -> Vg=1.04556
% INFO    : Gen at bus 218	: Pg=400.0, Qg=137.4 -> Pg=400.0, Qg=61.795
% INFO    : Gen at bus 218	: Vg=1.05 -> Vg=1.05
% INFO    : Gen at bus 221	: Pg=400.0, Qg=108.2 -> Pg=400.0, Qg=-9.833
% INFO    : Gen at bus 221	: Vg=1.05 -> Vg=1.05
% INFO    : Gen at bus 222	: Pg=50.0, Qg=-4.96 -> Pg=50.0, Qg=-6.797
% INFO    : Gen at bus 222	: Vg=1.05 -> Vg=1.05
% INFO    : Gen at bus 222	: Pg=50.0, Qg=-4.96 -> Pg=50.0, Qg=-6.797
% INFO    : Gen at bus 222	: Vg=1.05 -> Vg=1.05
% INFO    : Gen at bus 222	: Pg=50.0, Qg=-4.96 -> Pg=50.0, Qg=-6.797
% INFO    : Gen at bus 222	: Vg=1.05 -> Vg=1.05
% INFO    : Gen at bus 222	: Pg=50.0, Qg=-4.96 -> Pg=50.0, Qg=-6.797
% INFO    : Gen at bus 222	: Vg=1.05 -> Vg=1.05
% INFO    : Gen at bus 222	: Pg=50.0, Qg=-4.96 -> Pg=50.0, Qg=-6.797
% INFO    : Gen at bus 222	: Vg=1.05 -> Vg=1.05
% INFO    : Gen at bus 222	: Pg=50.0, Qg=-4.96 -> Pg=50.0, Qg=-6.797
% INFO    : Gen at bus 222	: Vg=1.05 -> Vg=1.05
% INFO    : Gen at bus 223	: Pg=155.0, Qg=31.79 -> Pg=155.0, Qg=0.029
% INFO    : Gen at bus 223	: Vg=1.05 -> Vg=1.05
% INFO    : Gen at bus 223	: Pg=155.0, Qg=31.79 -> Pg=155.0, Qg=0.029
% INFO    : Gen at bus 223	: Vg=1.05 -> Vg=1.05
% INFO    : Gen at bus 223	: Pg=350.0, Qg=71.78 -> Pg=350.0, Qg=36.403
% INFO    : Gen at bus 223	: Vg=1.05 -> Vg=1.05
% INFO    : Gen at bus 301	: Pg=10.0, Qg=0.0 -> Pg=16.0, Qg=4.902
% INFO    : Gen at bus 301	: Vg=1.035 -> Vg=1.0486
% INFO    : Gen at bus 301	: Pg=10.0, Qg=0.0 -> Pg=16.0, Qg=4.902
% INFO    : Gen at bus 301	: Vg=1.035 -> Vg=1.0486
% INFO    : Gen at bus 301	: Pg=76.0, Qg=14.1 -> Pg=76.0, Qg=-0.426
% INFO    : Gen at bus 301	: Vg=1.035 -> Vg=1.0486
% INFO    : Gen at bus 301	: Pg=76.0, Qg=14.1 -> Pg=76.0, Qg=-0.426
% INFO    : Gen at bus 301	: Vg=1.035 -> Vg=1.0486
% INFO    : Gen at bus 302	: Pg=10.0, Qg=0.0 -> Pg=16.0, Qg=4.833
% INFO    : Gen at bus 302	: Vg=1.035 -> Vg=1.04864
% INFO    : Gen at bus 302	: Pg=10.0, Qg=0.0 -> Pg=16.0, Qg=4.833
% INFO    : Gen at bus 302	: Vg=1.035 -> Vg=1.04864
% INFO    : Gen at bus 302	: Pg=76.0, Qg=7.0 -> Pg=76.0, Qg=-2.394
% INFO    : Gen at bus 302	: Vg=1.035 -> Vg=1.04864
% INFO    : Gen at bus 302	: Pg=76.0, Qg=7.0 -> Pg=76.0, Qg=-2.394
% INFO    : Gen at bus 302	: Vg=1.035 -> Vg=1.04864
% INFO    : Gen at bus 307	: Pg=80.0, Qg=17.2 -> Pg=70.297, Qg=16.714
% INFO    : Gen at bus 307	: Vg=1.025 -> Vg=1.03804
% INFO    : Gen at bus 307	: Pg=80.0, Qg=17.2 -> Pg=70.297, Qg=16.714
% INFO    : Gen at bus 307	: Vg=1.025 -> Vg=1.03804
% INFO    : Gen at bus 307	: Pg=80.0, Qg=17.2 -> Pg=70.297, Qg=16.714
% INFO    : Gen at bus 307	: Vg=1.025 -> Vg=1.03804
% INFO    : Gen at bus 313	: Pg=95.1, Qg=40.7 -> Pg=76.947, Qg=37.941
% INFO    : Gen at bus 313	: Vg=1.02 -> Vg=1.03802
% INFO    : Gen at bus 313	: Pg=95.1, Qg=40.7 -> Pg=76.947, Qg=37.941
% INFO    : Gen at bus 313	: Vg=1.02 -> Vg=1.03802
% INFO    : Gen at bus 313	: Pg=95.1, Qg=40.7 -> Pg=76.947, Qg=37.941
% INFO    : Gen at bus 313	: Vg=1.02 -> Vg=1.03802
% INFO    : Gen at bus 314	: Pg=0.0, Qg=13.68 -> Pg=0.0, Qg=117.87
% INFO    : Gen at bus 314	: Vg=0.98 -> Vg=1.04631
% INFO    : Gen at bus 315	: Pg=12.0, Qg=0.0 -> Pg=2.4, Qg=6.0
% INFO    : Gen at bus 315	: Vg=1.014 -> Vg=1.043
% INFO    : Gen at bus 315	: Pg=12.0, Qg=0.0 -> Pg=2.4, Qg=6.0
% INFO    : Gen at bus 315	: Vg=1.014 -> Vg=1.043
% INFO    : Gen at bus 315	: Pg=12.0, Qg=0.0 -> Pg=2.4, Qg=6.0
% INFO    : Gen at bus 315	: Vg=1.014 -> Vg=1.043
% INFO    : Gen at bus 315	: Pg=12.0, Qg=0.0 -> Pg=2.4, Qg=6.0
% INFO    : Gen at bus 315	: Vg=1.014 -> Vg=1.043
% INFO    : Gen at bus 315	: Pg=12.0, Qg=0.0 -> Pg=2.4, Qg=6.0
% INFO    : Gen at bus 315	: Vg=1.014 -> Vg=1.043
% INFO    : Gen at bus 315	: Pg=155.0, Qg=0.048 -> Pg=155.0, Qg=80.0
% INFO    : Gen at bus 315	: Vg=1.014 -> Vg=1.043
% INFO    : Gen at bus 316	: Pg=155.0, Qg=25.22 -> Pg=155.0, Qg=80.0
% INFO    : Gen at bus 316	: Vg=1.017 -> Vg=1.04558
% INFO    : Gen at bus 318	: Pg=400.0, Qg=137.4 -> Pg=400.0, Qg=57.471
% INFO    : Gen at bus 318	: Vg=1.05 -> Vg=1.05
% INFO    : Gen at bus 321	: Pg=400.0, Qg=108.2 -> Pg=400.0, Qg=-13.198
% INFO    : Gen at bus 321	: Vg=1.05 -> Vg=1.05
% INFO    : Gen at bus 322	: Pg=50.0, Qg=-4.96 -> Pg=50.0, Qg=-6.683
% INFO    : Gen at bus 322	: Vg=1.05 -> Vg=1.05
% INFO    : Gen at bus 322	: Pg=50.0, Qg=-4.96 -> Pg=50.0, Qg=-6.683
% INFO    : Gen at bus 322	: Vg=1.05 -> Vg=1.05
% INFO    : Gen at bus 322	: Pg=50.0, Qg=-4.96 -> Pg=50.0, Qg=-6.683
% INFO    : Gen at bus 322	: Vg=1.05 -> Vg=1.05
% INFO    : Gen at bus 322	: Pg=50.0, Qg=-4.96 -> Pg=50.0, Qg=-6.683
% INFO    : Gen at bus 322	: Vg=1.05 -> Vg=1.05
% INFO    : Gen at bus 322	: Pg=50.0, Qg=-4.96 -> Pg=50.0, Qg=-6.683
% INFO    : Gen at bus 322	: Vg=1.05 -> Vg=1.05
% INFO    : Gen at bus 322	: Pg=50.0, Qg=-4.96 -> Pg=50.0, Qg=-6.683
% INFO    : Gen at bus 322	: Vg=1.05 -> Vg=1.05
% INFO    : Gen at bus 323	: Pg=155.0, Qg=31.79 -> Pg=155.0, Qg=1.045
% INFO    : Gen at bus 323	: Vg=1.05 -> Vg=1.05
% INFO    : Gen at bus 323	: Pg=155.0, Qg=31.79 -> Pg=155.0, Qg=1.045
% INFO    : Gen at bus 323	: Vg=1.05 -> Vg=1.05
% INFO    : Gen at bus 323	: Pg=350.0, Qg=71.78 -> Pg=350.0, Qg=38.06
% INFO    : Gen at bus 323	: Vg=1.05 -> Vg=1.05
% INFO    : 
% INFO    : === Writing Matpower Case File Notes ===
